**
** Heading +++++++++++++++++++++++++++++++++++++++++++++++++
**
*Heading
Hash: HCqTnjuq, Date: 05/28/2026, Unit system: MM_TON_S_C
**
** Nodes +++++++++++++++++++++++++++++++++++++++++++++++++++
**
*Node
1, 0.00000000E+000, 4.00000000E+002, 0.00000000E+000
2, 0.00000000E+000, 0.00000000E+000, 0.00000000E+000
3, 4.00000000E+002, 0.00000000E+000, 0.00000000E+000
4, 4.00000000E+002, 4.00000000E+002, 0.00000000E+000
5, 0.00000000E+000, 3.80000000E+002, 0.00000000E+000
6, 0.00000000E+000, 3.60000000E+002, 0.00000000E+000
7, 0.00000000E+000, 3.40000000E+002, 0.00000000E+000
8, 0.00000000E+000, 3.20000000E+002, 0.00000000E+000
9, 0.00000000E+000, 3.00000000E+002, 0.00000000E+000
10, 0.00000000E+000, 2.80000000E+002, 0.00000000E+000
11, 0.00000000E+000, 2.60000000E+002, 0.00000000E+000
12, 0.00000000E+000, 2.40000000E+002, 0.00000000E+000
13, 0.00000000E+000, 2.20000000E+002, 0.00000000E+000
14, 0.00000000E+000, 2.00000000E+002, 0.00000000E+000
15, 0.00000000E+000, 1.80000000E+002, 0.00000000E+000
16, 0.00000000E+000, 1.60000000E+002, 0.00000000E+000
17, 0.00000000E+000, 1.40000000E+002, 0.00000000E+000
18, 0.00000000E+000, 1.20000000E+002, 0.00000000E+000
19, 0.00000000E+000, 1.00000000E+002, 0.00000000E+000
20, 0.00000000E+000, 8.00000000E+001, 0.00000000E+000
** ... 1261 like lines cut
**
** Elements ++++++++++++++++++++++++++++++++++++++++++++++++
**
*Element, Type=S8R, Elset=Shell_part-1
1, 1, 5, 161, 140, 24, 522, 523, 160
2, 140, 161, 162, 139, 523, 524, 525, 159
3, 139, 162, 163, 138, 525, 526, 527, 158
4, 138, 163, 164, 137, 527, 528, 529, 157
5, 137, 164, 165, 136, 529, 530, 531, 156
6, 136, 165, 166, 135, 531, 532, 533, 155
7, 135, 166, 167, 134, 533, 534, 535, 154
8, 134, 167, 168, 133, 535, 536, 537, 153
9, 133, 168, 169, 132, 537, 538, 539, 152
10, 132, 169, 170, 131, 539, 540, 541, 151
11, 131, 170, 171, 130, 541, 542, 543, 150
12, 130, 171, 172, 129, 543, 544, 545, 149
13, 129, 172, 173, 128, 545, 546, 547, 148
14, 128, 173, 174, 127, 547, 548, 549, 147
15, 127, 174, 175, 126, 549, 550, 551, 146
16, 126, 175, 176, 125, 551, 552, 553, 145
17, 125, 176, 177, 124, 553, 554, 555, 144
18, 124, 177, 178, 123, 555, 556, 557, 143
19, 123, 178, 179, 122, 557, 558, 559, 142
20, 122, 179, 101, 4, 559, 560, 121, 141
** ... 380 like lines cut
**
** Node sets +++++++++++++++++++++++++++++++++++++++++++++++
**
*Nset, Nset=Internal_Selection-1_Fixed-1
1, 2, 3, 4, 5, 6, 7, 8, 9, 10, 11, 12, 13, 14, 15, 16, 
17, 18, 19, 20, 21, 22, 23, 24, 25, 26, 27, 28, 29, 30, 31, 32, 
33, 34, 35, 36, 37, 38, 39, 40, 41, 42, 43, 44, 45, 46, 47, 48, 
49, 50, 51, 52, 53, 54, 55, 56, 57, 58, 59, 60, 61, 62, 63, 64, 
65, 66, 67, 68, 69, 70, 71, 72, 73, 74, 75, 76, 77, 78, 79, 80, 
81, 82, 83, 84, 85, 86, 87, 88, 89, 90, 91, 92, 93, 94, 95, 96, 
97, 98, 99, 100, 101, 102, 103, 104, 105, 106, 107, 108, 109, 110, 111, 112, 
113, 114, 115, 116, 117, 118, 119, 120, 121, 122, 123, 124, 125, 126, 127, 128, 
129, 130, 131, 132, 133, 134, 135, 136, 137, 138, 139, 140, 141, 142, 143, 144, 
145, 146, 147, 148, 149, 150, 151, 152, 153, 154, 155, 156, 157, 158, 159, 160
**
** Element sets ++++++++++++++++++++++++++++++++++++++++++++
**
*Elset, Elset=Element_Set-1
1, 2, 3, 4, 5, 6, 7, 8, 9, 10, 11, 12, 13, 14, 15, 16, 
17, 18, 19, 20, 21, 22, 23, 24, 25, 26, 27, 28, 29, 30, 31, 32, 
33, 34, 35, 36, 37, 38, 39, 40, 41, 42, 43, 44, 45, 46, 47, 48, 
49, 50, 51, 52, 53, 54, 55, 56, 57, 58, 59, 60, 61, 62, 63, 64, 
65, 66, 67, 68, 69, 70, 71, 72, 73, 74, 75, 76, 77, 78, 79, 80, 
81, 82, 83, 84, 85, 86, 87, 88, 89, 90, 91, 92, 93, 94, 95, 96, 
97, 98, 99, 100, 101, 102, 103, 104, 105, 106, 107, 108, 109, 110, 111, 112, 
113, 114, 115, 116, 117, 118, 119, 120, 121, 122, 123, 124, 125, 126, 127, 128, 
129, 130, 131, 132, 133, 134, 135, 136, 137, 138, 139, 140, 141, 142, 143, 144, 
145, 146, 147, 148, 149, 150, 151, 152, 153, 154, 155, 156, 157, 158, 159, 160, 
161, 162, 163, 164, 165, 166, 167, 168, 169, 170, 171, 172, 173, 174, 175, 176, 
177, 178, 179, 180, 181, 182, 183, 184, 185, 186, 187, 188, 189, 190, 191, 192, 
193, 194, 195, 196, 197, 198, 199, 200, 201, 202, 203, 204, 205, 206, 207, 208, 
209, 210, 211, 212, 213, 214, 215, 216, 217, 218, 219, 220, 221, 222, 223, 224, 
225, 226, 227, 228, 229, 230, 231, 232, 233, 234, 235, 236, 237, 238, 239, 240, 
241, 242, 243, 244, 245, 246, 247, 248, 249, 250, 251, 252, 253, 254, 255, 256, 
257, 258, 259, 260, 261, 262, 263, 264, 265, 266, 267, 268, 269, 270, 271, 272, 
273, 274, 275, 276, 277, 278, 279, 280, 281, 282, 283, 284, 285, 286, 287, 288, 
289, 290, 291, 292, 293, 294, 295, 296, 297, 298, 299, 300, 301, 302, 303, 304, 
305, 306, 307, 308, 309, 310, 311, 312, 313, 314, 315, 316, 317, 318, 319, 320, 
** ... 5 like lines cut
*Elset, Elset=Missing_section-1
1, 2, 3, 4, 5, 6, 7, 8, 9, 10, 11, 12, 13, 14, 15, 16, 
17, 18, 19, 20, 21, 22, 23, 24, 25, 26, 27, 28, 29, 30, 31, 32, 
33, 34, 35, 36, 37, 38, 39, 40, 41, 42, 43, 44, 45, 46, 47, 48, 
49, 50, 51, 52, 53, 54, 55, 56, 57, 58, 59, 60, 61, 62, 63, 64, 
65, 66, 67, 68, 69, 70, 71, 72, 73, 74, 75, 76, 77, 78, 79, 80, 
81, 82, 83, 84, 85, 86, 87, 88, 89, 90, 91, 92, 93, 94, 95, 96, 
97, 98, 99, 100, 101, 102, 103, 104, 105, 106, 107, 108, 109, 110, 111, 112, 
113, 114, 115, 116, 117, 118, 119, 120, 121, 122, 123, 124, 125, 126, 127, 128, 
129, 130, 131, 132, 133, 134, 135, 136, 137, 138, 139, 140, 141, 142, 143, 144, 
145, 146, 147, 148, 149, 150, 151, 152, 153, 154, 155, 156, 157, 158, 159, 160, 
161, 162, 163, 164, 165, 166, 167, 168, 169, 170, 171, 172, 173, 174, 175, 176, 
177, 178, 179, 180, 181, 182, 183, 184, 185, 186, 187, 188, 189, 190, 191, 192, 
193, 194, 195, 196, 197, 198, 199, 200, 201, 202, 203, 204, 205, 206, 207, 208, 
209, 210, 211, 212, 213, 214, 215, 216, 217, 218, 219, 220, 221, 222, 223, 224, 
225, 226, 227, 228, 229, 230, 231, 232, 233, 234, 235, 236, 237, 238, 239, 240, 
241, 242, 243, 244, 245, 246, 247, 248, 249, 250, 251, 252, 253, 254, 255, 256, 
257, 258, 259, 260, 261, 262, 263, 264, 265, 266, 267, 268, 269, 270, 271, 272, 
273, 274, 275, 276, 277, 278, 279, 280, 281, 282, 283, 284, 285, 286, 287, 288, 
289, 290, 291, 292, 293, 294, 295, 296, 297, 298, 299, 300, 301, 302, 303, 304, 
305, 306, 307, 308, 309, 310, 311, 312, 313, 314, 315, 316, 317, 318, 319, 320, 
** ... 5 like lines cut
**
** Surfaces ++++++++++++++++++++++++++++++++++++++++++++++++
**
**
** Physical constants ++++++++++++++++++++++++++++++++++++++
**
**
** Coordinate systems ++++++++++++++++++++++++++++++++++++++
**
**
** Materials +++++++++++++++++++++++++++++++++++++++++++++++
**
*MATERIAL, NAME=composite
*DENSITY
1.5E-9
*ELASTIC, TYPE=ENGINEERING CONSTANTS
140000.0, 9000.0, 9000.0, 0.3, 0.3, 0.4, 5000.0, 5000.0,
1500.0
*ORIENTATION, NAME=ORI_90, SYSTEM=RECTANGULAR
1.0, 0.0, 0.0, 0.0, 1.0, 0.0
3, 90.0
*SHELL SECTION, ELSET=Element_Set-1, COMPOSITE
0.15, 0.0, composite
0.15, ORI_90, composite
0.15, ORI_90, composite
0.15, 0.0, composite
**
** Sections ++++++++++++++++++++++++++++++++++++++++++++++++
**
**
** Pre-tension sections ++++++++++++++++++++++++++++++++++++
**
**
** Constraints +++++++++++++++++++++++++++++++++++++++++++++
**
**
** Surface interactions ++++++++++++++++++++++++++++++++++++
**
**
** Contact pairs +++++++++++++++++++++++++++++++++++++++++++
**
**
** Amplitudes ++++++++++++++++++++++++++++++++++++++++++++++
**
**
** Initial conditions ++++++++++++++++++++++++++++++++++++++
**
**
** Steps +++++++++++++++++++++++++++++++++++++++++++++++++++
**
**
** Step-1 ++++++++++++++++++++++++++++++++++++++++++++++++++
**
*Step
*Frequency, Solver=PaStiX
10
**
** Controls ++++++++++++++++++++++++++++++++++++++++++++++++
**
**
** Output frequency ++++++++++++++++++++++++++++++++++++++++
**
*Output, Frequency=1
**
** Boundary conditions +++++++++++++++++++++++++++++++++++++
**
*Boundary, op=New
** Name: Fixed-1
*Boundary
Internal_Selection-1_Fixed-1, 1, 6, 0
**
** Loads +++++++++++++++++++++++++++++++++++++++++++++++++++
**
**
** Defined fields ++++++++++++++++++++++++++++++++++++++++++
**
**
** History outputs +++++++++++++++++++++++++++++++++++++++++
**
**
** Field outputs +++++++++++++++++++++++++++++++++++++++++++
**
*Node file
U
*El file
S, E, NOE
**
** End step ++++++++++++++++++++++++++++++++++++++++++++++++
**
*End step
